REMARK SMILES CC(C)C[C@H](NC(=O)[C@H](CC(=O)[O-])NC(=O)[C@@H]([NH3+])CCC(=O)[O-])C(=O)[O-]
REMARK SMILES IDX 15 1 16 2 14 3 17 5 18 6 19 10 20 11 21 12 23 13 22 14 9 15
REMARK SMILES IDX 7 16 8 17 6 18 5 20 24 21 25 22 26 23 4 24 2 25 3 26 1 27
REMARK SMILES IDX 10 28 11 29 13 30 12 31
REMARK H PARENT 14 4 18 7 18 8 18 9 6 19
REMARK Flexibility Score: inf
ROOT
ATOM      1  C   UNL     1      -5.121   1.901   1.872  1.00  0.00     0.278 C 
ATOM      2  O   UNL     1      -5.349   0.956   2.636  1.00  0.00    -0.268 OA
ATOM      3  N   UNL     1      -5.638   1.986   0.651  1.00  0.00    -0.339 N 
ATOM      4  H   UNL     1      -5.442   2.798   0.100  1.00  0.00     0.164 HD
ENDROOT
BRANCH   1   5
ATOM      5  C   UNL     1      -4.266   3.086   2.317  1.00  0.00     0.271 C 
BRANCH   5   6
ATOM      6  N   UNL     1      -4.500   3.379   3.756  1.00  0.00    -0.347 N 
ATOM      7  H   UNL     1      -3.930   4.163   4.037  1.00  0.00     0.345 HD
ATOM      8  H   UNL     1      -4.257   2.572   4.308  1.00  0.00     0.345 HD
ATOM      9  H   UNL     1      -5.473   3.604   3.900  1.00  0.00     0.345 HD
ENDBRANCH   5   6
BRANCH   5  10
ATOM     10  C   UNL     1      -2.781   2.815   2.058  1.00  0.00     0.081 C 
BRANCH  10  11
ATOM     11  C   UNL     1      -2.172   1.782   2.985  1.00  0.00     0.059 C 
BRANCH  11  12
ATOM     12  C   UNL     1      -0.680   1.606   2.781  1.00  0.00     0.042 C 
ATOM     13  O   UNL     1       0.030   2.626   2.625  1.00  0.00    -0.550 OA
ATOM     14  O   UNL     1      -0.219   0.442   2.790  1.00  0.00    -0.550 OA
ENDBRANCH  11  12
ENDBRANCH  10  11
ENDBRANCH   5  10
ENDBRANCH   1   5
BRANCH   3  15
ATOM     15  C   UNL     1      -6.478   0.938   0.088  1.00  0.00     0.177 C 
BRANCH  15  16
ATOM     16  C   UNL     1      -5.906   0.520  -1.255  1.00  0.00     0.243 C 
ATOM     17  O   UNL     1      -6.170   1.153  -2.279  1.00  0.00    -0.273 OA
ATOM     18  N   UNL     1      -5.082  -0.524  -1.227  1.00  0.00    -0.346 N 
ATOM     19  H   UNL     1      -4.908  -0.979  -0.353  1.00  0.00     0.164 HD
BRANCH  18  20
ATOM     20  C   UNL     1      -4.424  -1.026  -2.425  1.00  0.00     0.128 C 
BRANCH  20  21
ATOM     21  C   UNL     1      -5.005  -2.340  -2.916  1.00  0.00     0.064 C 
ATOM     22  O   UNL     1      -5.583  -3.072  -2.085  1.00  0.00    -0.548 OA
ATOM     23  O   UNL     1      -4.875  -2.625  -4.125  1.00  0.00    -0.548 OA
ENDBRANCH  20  21
BRANCH  20  24
ATOM     24  C   UNL     1      -2.936  -1.179  -2.151  1.00  0.00     0.034 C 
BRANCH  24  25
ATOM     25  C   UNL     1      -2.342   0.183  -1.807  1.00  0.00    -0.015 C 
ATOM     26  C   UNL     1      -1.698   0.789  -3.045  1.00  0.00     0.007 C 
ATOM     27  C   UNL     1      -1.387   0.060  -0.660  1.00  0.00     0.007 C 
ENDBRANCH  24  25
ENDBRANCH  20  24
ENDBRANCH  18  20
ENDBRANCH  15  16
BRANCH  15  28
ATOM     28  C   UNL     1      -7.912   1.445  -0.049  1.00  0.00     0.087 C 
BRANCH  28  29
ATOM     29  C   UNL     1      -8.552   1.706   1.298  1.00  0.00     0.044 C 
ATOM     30  O   UNL     1      -9.016   0.729   1.915  1.00  0.00    -0.550 OA
ATOM     31  O   UNL     1      -8.555   2.869   1.762  1.00  0.00    -0.550 OA
ENDBRANCH  28  29
ENDBRANCH  15  28
ENDBRANCH   3  15
TORSDOF 13
