REMARK SMILES CC(C)C[C@H](NC(=O)[C@H](CC(=O)[O-])NC(=O)[C@@H]([NH3+])CCC(=O)[O-])C(=O)[O-]
REMARK SMILES IDX 15 1 16 2 14 3 17 5 18 6 19 10 20 11 21 12 23 13 22 14 9 15
REMARK SMILES IDX 7 16 8 17 6 18 5 20 24 21 25 22 26 23 4 24 2 25 3 26 1 27
REMARK SMILES IDX 10 28 11 29 13 30 12 31
REMARK H PARENT 14 4 18 7 18 8 18 9 6 19
REMARK Flexibility Score: inf
ROOT
ATOM      1  C   UNL     1      -0.806   1.560   0.417  1.00  0.00     0.278 C 
ATOM      2  O   UNL     1      -0.224   2.649   0.368  1.00  0.00    -0.268 OA
ATOM      3  N   UNL     1      -0.302   0.497   1.032  1.00  0.00    -0.339 N 
ATOM      4  H   UNL     1      -0.845  -0.343   1.067  1.00  0.00     0.164 HD
ENDROOT
BRANCH   1   5
ATOM      5  C   UNL     1      -2.200   1.384  -0.182  1.00  0.00     0.271 C 
BRANCH   5   6
ATOM      6  N   UNL     1      -3.001   2.625  -0.000  1.00  0.00    -0.347 N 
ATOM      7  H   UNL     1      -3.918   2.495  -0.399  1.00  0.00     0.345 HD
ATOM      8  H   UNL     1      -2.539   3.393  -0.460  1.00  0.00     0.345 HD
ATOM      9  H   UNL     1      -3.090   2.827   0.985  1.00  0.00     0.345 HD
ENDBRANCH   5   6
BRANCH   5  10
ATOM     10  C   UNL     1      -2.114   1.012  -1.665  1.00  0.00     0.081 C 
BRANCH  10  11
ATOM     11  C   UNL     1      -1.665   2.150  -2.560  1.00  0.00     0.059 C 
BRANCH  11  12
ATOM     12  C   UNL     1      -1.687   1.791  -4.033  1.00  0.00     0.042 C 
ATOM     13  O   UNL     1      -2.667   1.153  -4.482  1.00  0.00    -0.550 OA
ATOM     14  O   UNL     1      -0.726   2.164  -4.744  1.00  0.00    -0.550 OA
ENDBRANCH  11  12
ENDBRANCH  10  11
ENDBRANCH   5  10
ENDBRANCH   1   5
BRANCH   3  15
ATOM     15  C   UNL     1       1.014   0.511   1.657  1.00  0.00     0.177 C 
BRANCH  15  16
ATOM     16  C   UNL     1       1.828  -0.648   1.111  1.00  0.00     0.243 C 
ATOM     17  O   UNL     1       1.716  -1.779   1.589  1.00  0.00    -0.273 OA
ATOM     18  N   UNL     1       2.610  -0.362   0.074  1.00  0.00    -0.346 N 
ATOM     19  H   UNL     1       2.638   0.579  -0.264  1.00  0.00     0.164 HD
BRANCH  18  20
ATOM     20  C   UNL     1       3.426  -1.372  -0.585  1.00  0.00     0.128 C 
BRANCH  20  21
ATOM     21  C   UNL     1       4.906  -1.233  -0.279  1.00  0.00     0.064 C 
ATOM     22  O   UNL     1       5.333  -0.107   0.054  1.00  0.00    -0.548 OA
ATOM     23  O   UNL     1       5.625  -2.250  -0.375  1.00  0.00    -0.548 OA
ENDBRANCH  20  21
BRANCH  20  24
ATOM     24  C   UNL     1       3.192  -1.302  -2.087  1.00  0.00     0.034 C 
BRANCH  24  25
ATOM     25  C   UNL     1       1.725  -1.595  -2.384  1.00  0.00    -0.015 C 
ATOM     26  C   UNL     1       1.564  -3.055  -2.778  1.00  0.00     0.007 C 
ATOM     27  C   UNL     1       1.207  -0.655  -3.428  1.00  0.00     0.007 C 
ENDBRANCH  24  25
ENDBRANCH  20  24
ENDBRANCH  18  20
ENDBRANCH  15  16
BRANCH  15  28
ATOM     28  C   UNL     1       0.865   0.425   3.174  1.00  0.00     0.087 C 
BRANCH  28  29
ATOM     29  C   UNL     1       0.203   1.658   3.750  1.00  0.00     0.044 C 
ATOM     30  O   UNL     1       0.915   2.663   3.934  1.00  0.00    -0.550 OA
ATOM     31  O   UNL     1      -1.028   1.644   3.979  1.00  0.00    -0.550 OA
ENDBRANCH  28  29
ENDBRANCH  15  28
ENDBRANCH   3  15
TORSDOF 13
