REMARK SMILES CC(C)C[C@H](NC(=O)[C@H](CC(=O)[O-])NC(=O)[C@@H]([NH3+])CCC(=O)[O-])C(=O)[O-]
REMARK SMILES IDX 15 1 16 2 14 3 17 5 18 6 19 10 20 11 21 12 23 13 22 14 9 15
REMARK SMILES IDX 7 16 8 17 6 18 5 20 24 21 25 22 26 23 4 24 2 25 3 26 1 27
REMARK SMILES IDX 10 28 11 29 13 30 12 31
REMARK H PARENT 14 4 18 7 18 8 18 9 6 19
REMARK Flexibility Score: inf
ROOT
ATOM      1  C   UNL     1      -1.177   0.946   0.711  1.00  0.00     0.278 C 
ATOM      2  O   UNL     1      -0.727   2.061   0.425  1.00  0.00    -0.268 OA
ATOM      3  N   UNL     1      -0.478   0.030   1.370  1.00  0.00    -0.339 N 
ATOM      4  H   UNL     1      -0.917  -0.838   1.602  1.00  0.00     0.164 HD
ENDROOT
BRANCH   1   5
ATOM      5  C   UNL     1      -2.618   0.568   0.372  1.00  0.00     0.271 C 
BRANCH   5   6
ATOM      6  N   UNL     1      -3.510   1.750   0.517  1.00  0.00    -0.347 N 
ATOM      7  H   UNL     1      -4.456   1.487   0.291  1.00  0.00     0.345 HD
ATOM      8  H   UNL     1      -3.205   2.479  -0.109  1.00  0.00     0.345 HD
ATOM      9  H   UNL     1      -3.473   2.085   1.467  1.00  0.00     0.345 HD
ENDBRANCH   5   6
BRANCH   5  10
ATOM     10  C   UNL     1      -2.713  -0.008  -1.043  1.00  0.00     0.081 C 
BRANCH  10  11
ATOM     11  C   UNL     1      -2.524   1.020  -2.141  1.00  0.00     0.059 C 
BRANCH  11  12
ATOM     12  C   UNL     1      -2.726   0.449  -3.531  1.00  0.00     0.042 C 
ATOM     13  O   UNL     1      -3.688  -0.329  -3.728  1.00  0.00    -0.550 OA
ATOM     14  O   UNL     1      -1.926   0.794  -4.430  1.00  0.00    -0.550 OA
ENDBRANCH  11  12
ENDBRANCH  10  11
ENDBRANCH   5  10
ENDBRANCH   1   5
BRANCH   3  15
ATOM     15  C   UNL     1       0.907   0.246   1.767  1.00  0.00     0.177 C 
BRANCH  15  16
ATOM     16  C   UNL     1       1.750  -0.908   1.254  1.00  0.00     0.243 C 
ATOM     17  O   UNL     1       1.831  -1.962   1.889  1.00  0.00    -0.273 OA
ATOM     18  N   UNL     1       2.335  -0.711   0.076  1.00  0.00    -0.346 N 
ATOM     19  H   UNL     1       2.213   0.169  -0.383  1.00  0.00     0.164 HD
BRANCH  18  20
ATOM     20  C   UNL     1       3.147  -1.733  -0.567  1.00  0.00     0.128 C 
BRANCH  20  21
ATOM     21  C   UNL     1       4.633  -1.427  -0.525  1.00  0.00     0.064 C 
ATOM     22  O   UNL     1       4.983  -0.234  -0.415  1.00  0.00    -0.548 OA
ATOM     23  O   UNL     1       5.433  -2.384  -0.601  1.00  0.00    -0.548 OA
ENDBRANCH  20  21
BRANCH  20  24
ATOM     24  C   UNL     1       2.687  -1.904  -2.008  1.00  0.00     0.034 C 
BRANCH  24  25
ATOM     25  C   UNL     1       1.232  -2.360  -2.023  1.00  0.00    -0.015 C 
ATOM     26  C   UNL     1       1.170  -3.871  -2.191  1.00  0.00     0.007 C 
ATOM     27  C   UNL     1       0.468  -1.629  -3.085  1.00  0.00     0.007 C 
ENDBRANCH  24  25
ENDBRANCH  20  24
ENDBRANCH  18  20
ENDBRANCH  15  16
BRANCH  15  28
ATOM     28  C   UNL     1       0.995   0.370   3.286  1.00  0.00     0.087 C 
BRANCH  28  29
ATOM     29  C   UNL     1       0.298   1.615   3.795  1.00  0.00     0.044 C 
ATOM     30  O   UNL     1       0.919   2.692   3.728  1.00  0.00    -0.550 OA
ATOM     31  O   UNL     1      -0.877   1.531   4.219  1.00  0.00    -0.550 OA
ENDBRANCH  28  29
ENDBRANCH  15  28
ENDBRANCH   3  15
TORSDOF 13
